@<TRIPOS>MOLECULE
03-C2H5NO.pdb
 9 8 0 0 0
SMALL
GASTEIGER

@<TRIPOS>ATOM
      1  C1         0.8680   -1.2910   -1.9940 C.3     1  UNL1       -0.0002
      2  N2         0.4260   -1.1690   -0.6310 N.am    1  UNL1       -0.3209
      3  C3        -0.3600   -2.0810    0.0070 C.2     1  UNL1        0.1997
      4  O4        -0.7660   -3.1010   -0.5320 O.2     1  UNL1       -0.2795
      5  H5         0.4910   -2.2100   -2.4500 H       1  UNL1        0.0426
      6  H6         1.9610   -1.2940   -2.0020 H       1  UNL1        0.0426
      7  H7         0.5050   -0.4240   -2.5520 H       1  UNL1        0.0426
      8  H8         0.6960   -0.3650   -0.0770 H       1  UNL1        0.1481
      9  H9        -0.5990   -1.8190    1.0500 H       1  UNL1        0.1251
@<TRIPOS>BOND
     1     1     2    1
     2     1     5    1
     3     1     6    1
     4     1     7    1
     5     2     3   am
     6     2     8    1
     7     3     4    2
     8     3     9    1
