@<TRIPOS>MOLECULE
04-C3H7NO.pdb
 12 11 0 0 0
SMALL
GASTEIGER

@<TRIPOS>ATOM
      1  C1         0.9260    0.0450   -0.0370 C.3     1  UNL1        0.0121
      2  C2         0.4480   -1.1980   -0.7350 C.2     1  UNL1        0.2097
      3  O3        -0.2620   -2.0290   -0.1730 O.2     1  UNL1       -0.2761
      4  N4         0.8210   -1.3950   -2.0310 N.am    1  UNL1       -0.3186
      5  C5         0.4920   -2.4970   -2.9030 C.3     1  UNL1        0.0000
      6  H6         0.5430    0.0540    0.9890 H       1  UNL1        0.0322
      7  H7         0.5520    0.9330   -0.5520 H       1  UNL1        0.0322
      8  H8         2.0180    0.0570    0.0030 H       1  UNL1        0.0322
      9  H9         1.4040   -0.6510   -2.3980 H       1  UNL1        0.1483
     10  H10       -0.0270   -2.0940   -3.7760 H       1  UNL1        0.0426
     11  H11        1.4260   -2.9620   -3.2270 H       1  UNL1        0.0426
     12  H12       -0.1380   -3.2410   -2.4140 H       1  UNL1        0.0426
@<TRIPOS>BOND
     1     1     2    1
     2     1     6    1
     3     1     7    1
     4     1     8    1
     5     2     3    2
     6     2     4   am
     7     4     5    1
     8     4     9    1
     9     5    10    1
    10     5    11    1
    11     5    12    1
