@<TRIPOS>MOLECULE
05-C3H7NO.pdb
 12 11 0 0 0
SMALL
GASTEIGER

@<TRIPOS>ATOM
      1  C1         2.9980    0.4800    2.9340 C.3     1  UNL1       -0.0495
      2  C2         2.4340    1.5020    1.9660 C.3     1  UNL1        0.0085
      3  N3         0.9920    1.4330    1.9160 N.am    1  UNL1       -0.3181
      4  C4         0.1580    2.4460    2.2850 C.2     1  UNL1        0.1999
      5  O5         0.5620    3.4980    2.7600 O.2     1  UNL1       -0.2795
      6  H6         2.6220    0.6500    3.9480 H       1  UNL1        0.0245
      7  H7         4.0900    0.5360    2.9570 H       1  UNL1        0.0245
      8  H8         2.7130   -0.5360    2.6400 H       1  UNL1        0.0245
      9  H9         2.7470    2.5100    2.2570 H       1  UNL1        0.0459
     10  H10        2.8030    1.3070    0.9540 H       1  UNL1        0.0459
     11  H11        0.5340    0.6130    1.5350 H       1  UNL1        0.1484
     12  H12       -0.9100    2.2360    2.1170 H       1  UNL1        0.1251
@<TRIPOS>BOND
     1     1     2    1
     2     1     6    1
     3     1     7    1
     4     1     8    1
     5     2     3    1
     6     2     9    1
     7     2    10    1
     8     3     4   am
     9     3    11    1
    10     4     5    2
    11     4    12    1
