@<TRIPOS>MOLECULE
Molecule Name
 7 6 0 0 0
SMALL
USER_CHARGES

@<TRIPOS>ATOM
      1 P1          0.0000    0.0000   -0.0000 P.3     1  UNL1        0.6235
      2 F2         -1.3630    0.7750   -0.4770 F       1  UNL1       -0.1039
      3 F3          1.3630   -0.7750    0.4770 F       1  UNL1       -0.1039
      4 F4         -0.6450   -0.2180    1.4900 F       1  UNL1       -0.1039
      5 F5          0.6450    0.2170   -1.4900 F       1  UNL1       -0.1039
      6 F6         -0.6410   -1.4270   -0.4860 F       1  UNL1       -0.1039
      7 F7          0.6410    1.4270    0.4860 F       1  UNL1       -0.1039
@<TRIPOS>BOND
     1     1     2    1
     2     1     3    1
     3     1     4    1
     4     1     5    1
     5     1     6    1
     6     1     7    1
